30
Lattice="8.0 0.0 0.0 0.0 8.0 0.0 0.0 0.0 8.0" Properties=species:S:1:pos:R:3 pbc="T T T"
O        2.01100000      -3.11600000       0.46300000
H        2.86000000      -3.52500000       0.29400000
H        2.16500000      -2.18100000       0.33100000
O        2.38600000      -0.11800000       2.27800000
H        2.82800000       0.16500000       3.07800000
H        2.78100000       0.41200000       1.58500000
O        1.38000000       1.85500000       0.54000000
H        1.94200000       2.59700000       0.31700000
H        1.13100000       2.00800000       1.45200000
O       -0.82200000      -3.41300000       0.57400000
H        0.13300000      -3.34600000       0.56800000
H       -1.11800000      -2.58800000       0.95800000
O       -0.55500000       2.18500000      -2.09500000
H        0.00700000       2.85200000      -2.49000000
H       -0.02000000       1.80300000      -1.39900000
O        2.07000000      -0.49100000      -0.66500000
H        1.71700000       0.37300000      -0.45100000
H        1.38000000      -0.91000000      -1.18000000
O       -2.28200000       0.75200000       0.22700000
H       -2.60300000       0.33500000      -0.57300000
H       -2.91000000       0.49300000       0.90100000
O       -0.21000000      -0.85700000       1.54100000
H        0.74400000      -0.78000000       1.57400000
H       -0.49300000      -0.11200000       1.01100000
O       -0.20000000      -1.35600000      -2.46400000
H       -0.83700000      -0.89800000      -3.01300000
H       -0.72700000      -1.94200000      -1.92200000
O       -3.12700000       2.22100000      -3.09500000
H       -2.79800000       2.67500000      -3.87100000
H       -2.38300000       2.20200000      -2.49400000
